*Heading
** Job name: cohesive Model name: Model-1
** Generated by: Abaqus/CAE 2020
*Preprint, echo=NO, model=NO, history=NO, contact=NO
**
** PARTS
**
*Part, name=steel
*Node
      1, 0.00100000005, 0.000250000012
      2,           0., 0.000250000012
      3,           0.,           0.
      4, 0.00100000005,           0.
      5, 0.00100000005, 0.000500000024
      6,           0., 0.000500000024
      7, 0.000950000016, 0.000250000012
      8, 0.000900000043, 0.000250000012
      9, 0.000850000011, 0.000250000012
     10, 0.000800000038, 0.000250000012
     11, 0.000750000007, 0.000250000012
     12, 0.000700000033, 0.000250000012
     13, 0.000650000002, 0.000250000012
     14, 0.000600000028, 0.000250000012
     15, 0.000549999997, 0.000250000012
     16, 0.000500000024, 0.000250000012
     17, 0.000450000021, 0.000250000012
     18, 0.000400000019, 0.000250000012
     19, 0.000350000017, 0.000250000012
     20, 0.000300000014, 0.000250000012
** ... 232 like lines cut
*Element, type=CPS4R
  1,   1,   7,  80,  52
  2,   7,   8,  81,  80
  3,   8,   9,  82,  81
  4,   9,  10,  83,  82
  5,  10,  11,  84,  83
  6,  11,  12,  85,  84
  7,  12,  13,  86,  85
  8,  13,  14,  87,  86
  9,  14,  15,  88,  87
 10,  15,  16,  89,  88
 11,  16,  17,  90,  89
 12,  17,  18,  91,  90
 13,  18,  19,  92,  91
 14,  19,  20,  93,  92
 15,  20,  21,  94,  93
 16,  21,  22,  95,  94
 17,  22,  23,  96,  95
 18,  23,  24,  97,  96
 19,  24,  25,  98,  97
 20,  25,   2,  26,  98
** ... 180 like lines cut
*Element, type=COH2D4
201, 232, 251,   2,  25
202, 233, 232,  25,  24
203, 234, 233,  24,  23
204, 235, 234,  23,  22
205, 236, 235,  22,  21
206, 237, 236,  21,  20
207, 238, 237,  20,  19
208, 239, 238,  19,  18
209, 240, 239,  18,  17
210, 241, 240,  17,  16
211, 242, 241,  16,  15
212, 243, 242,  15,  14
213, 244, 243,  14,  13
214, 245, 244,  13,  12
215, 246, 245,  12,  11
216, 247, 246,  11,  10
217, 248, 247,  10,   9
218, 249, 248,   9,   8
219, 250, 249,   8,   7
220, 252, 250,   7,   1
*Nset, nset=Set-5, generate
   1,  252,    1
*Elset, elset=Set-5, generate
   1,  200,    1
*Elset, elset=CohesiveSeam-1-Elements, generate
 201,  220,    1
*Nset, nset=CohesiveSeam-1-TopNodes
  1,  2,  7,  8,  9, 10, 11, 12, 13, 14, 15, 16, 17, 18, 19, 20
 21, 22, 23, 24, 25
*Nset, nset=CohesiveSeam-1-BottomNodes, generate
 232,  252,    1
*Elset, elset=__PickedSurf5_S3, internal, generate
 201,  220,    1
*Surface, type=ELEMENT, name=_PickedSurf5, internal
__PickedSurf5_S3, S3
*Elset, elset=_CohesiveSeam-1-TopSurf_S3, internal, generate
 201,  220,    1
*Surface, type=ELEMENT, name=CohesiveSeam-1-TopSurf
_CohesiveSeam-1-TopSurf_S3, S3
*Elset, elset=_CohesiveSeam-1-BottomSurf_S1, internal, generate
 201,  220,    1
*Surface, type=ELEMENT, name=CohesiveSeam-1-BottomSurf
_CohesiveSeam-1-BottomSurf_S1, S1
** Section: steel
*Solid Section, elset=Set-5, material=steel
,
** Section: cohesive
*Cohesive Section, elset=CohesiveSeam-1-Elements, material=cohesive, response=TRACTION SEPARATION, thickness=SPECIFIED
1., 
*End Part
**  
**
** ASSEMBLY
**
*Assembly, name=Assembly
**  
*Instance, name=steel-1, part=steel
*End Instance
**  
*Nset, nset=Set-1, instance=steel-1
  3,  4, 30, 31, 32, 33, 34, 35, 36, 37, 38, 39, 40, 41, 42, 43
 44, 45, 46, 47, 48
*Elset, elset=Set-1, instance=steel-1, generate
  81,  100,    1
*Nset, nset=Set-2, instance=steel-1
  5,  6, 57, 58, 59, 60, 61, 62, 63, 64, 65, 66, 67, 68, 69, 70
 71, 72, 73, 74, 75
*Elset, elset=Set-2, instance=steel-1, generate
 181,  200,    1
*End Assembly
** 
** MATERIALS
** 
*Material, name=cohesive
*Damage Initiation, criterion=MAXS
100.,100.,100.
*Damage Evolution, type=ENERGY
 0.0005,
*Damage Stabilization
0.0001
*Elastic, type=TRACTION
 2e+08, 2e+08, 2e+08
*Material, name=steel
*Elastic
200000.,0.
** 
** BOUNDARY CONDITIONS
** 
** Name: BC-1 Type: 位移/转角
*Boundary
Set-1, 2, 2
** ----------------------------------------------------------------
** 
** STEP: Step-1
** 
*Step, name=Step-1, nlgeom=YES, inc=1000
*Static
0.01, 1., 1e-10, 1.
** 
** BOUNDARY CONDITIONS
** 
** Name: BC-2 Type: 位移/转角
*Boundary
Set-2, 2, 2, 1e-05
** 
** OUTPUT REQUESTS
** 
*Restart, write, frequency=0
** 
** FIELD OUTPUT: F-Output-1
** 
*Output, field
*Node Output
CF, RF, U
*Element Output, directions=YES
DMICRT, LE, PE, PEEQ, PEMAG, S, SDEG, STATUS
*Contact Output
CDISP, CSTRESS
** 
** HISTORY OUTPUT: H-Output-1
** 
*Output, history, variable=PRESELECT
*End Step
